Version 4
SHEET 1 3052 736
WIRE 400 -96 0 -96
WIRE 496 -96 400 -96
WIRE 608 -96 496 -96
WIRE 944 -96 608 -96
WIRE 1040 -96 944 -96
WIRE 1152 -96 1040 -96
WIRE 1872 -96 1760 -96
WIRE 1968 -96 1872 -96
WIRE 2304 -96 1968 -96
WIRE 2416 -96 2304 -96
WIRE 2512 -96 2416 -96
WIRE 2832 -96 2512 -96
WIRE 2976 -96 2832 -96
WIRE 496 -80 496 -96
WIRE 608 -80 608 -96
WIRE 1040 -80 1040 -96
WIRE 1152 -80 1152 -96
WIRE 1760 -80 1760 -96
WIRE 1872 -80 1872 -96
WIRE 2304 -80 2304 -96
WIRE 2416 -80 2416 -96
WIRE 352 -16 240 -16
WIRE 896 -16 784 -16
WIRE 2128 -16 2016 -16
WIRE 2672 -16 2560 -16
WIRE 496 0 496 -16
WIRE 496 0 400 0
WIRE 608 0 608 -16
WIRE 608 0 496 0
WIRE 1040 0 1040 -16
WIRE 1040 0 944 0
WIRE 1152 0 1152 -16
WIRE 1152 0 1040 0
WIRE 1760 0 1760 -16
WIRE 1872 0 1872 -16
WIRE 1872 0 1760 0
WIRE 1968 0 1872 0
WIRE 2304 0 2304 -16
WIRE 2416 0 2416 -16
WIRE 2416 0 2304 0
WIRE 2512 0 2416 0
WIRE 496 64 496 0
WIRE 496 64 240 64
WIRE 1040 64 1040 0
WIRE 1040 64 784 64
WIRE 1872 64 1872 0
WIRE 2128 64 1872 64
WIRE 2416 64 2416 0
WIRE 2672 64 2416 64
WIRE 240 176 240 64
WIRE 1232 176 240 176
WIRE 1376 176 1312 176
WIRE 1376 192 1376 176
WIRE 1536 192 1536 176
WIRE 2976 192 2976 -96
WIRE 2832 208 2832 -96
WIRE 0 224 0 -96
WIRE 784 304 784 64
WIRE 1376 304 1376 272
WIRE 1376 304 784 304
WIRE 1536 304 1536 272
WIRE 496 400 400 400
WIRE 608 400 496 400
WIRE 1040 400 944 400
WIRE 1152 400 1040 400
WIRE 1872 400 1872 64
WIRE 1872 400 1760 400
WIRE 1968 400 1872 400
WIRE 2416 400 2304 400
WIRE 2512 400 2416 400
WIRE 496 416 496 400
WIRE 608 416 608 400
WIRE 1040 416 1040 400
WIRE 1152 416 1152 400
WIRE 1760 416 1760 400
WIRE 1872 416 1872 400
WIRE 2304 416 2304 400
WIRE 2416 416 2416 400
WIRE 240 480 240 176
WIRE 352 480 240 480
WIRE 784 480 784 304
WIRE 896 480 784 480
WIRE 2128 480 2016 480
WIRE 2672 480 2560 480
WIRE 496 496 496 480
WIRE 496 496 400 496
WIRE 608 496 608 480
WIRE 608 496 496 496
WIRE 1040 496 1040 480
WIRE 1040 496 944 496
WIRE 1152 496 1152 480
WIRE 1152 496 1040 496
WIRE 1760 496 1760 480
WIRE 1872 496 1872 480
WIRE 1872 496 1760 496
WIRE 1968 496 1872 496
WIRE 2304 496 2304 480
WIRE 2416 496 2416 480
WIRE 2416 496 2304 496
WIRE 2512 496 2416 496
WIRE 0 560 0 304
WIRE 240 560 0 560
WIRE 496 560 496 496
WIRE 496 560 240 560
WIRE 784 560 496 560
WIRE 1040 560 1040 496
WIRE 1040 560 784 560
WIRE 1872 560 1872 496
WIRE 2128 560 1872 560
WIRE 2416 560 2416 496
WIRE 2416 560 2128 560
WIRE 2672 560 2416 560
WIRE 2832 560 2832 272
WIRE 2832 560 2672 560
WIRE 2976 560 2976 272
WIRE 2976 560 2832 560
WIRE 2976 672 2976 560
WIRE 1040 688 1040 560
FLAG 1040 688 0
FLAG 2976 672 0
SYMBOL voltage 0 208 R0
WINDOW 123 0 0 Left 0
WINDOW 39 24 124 Left 2
SYMATTR InstName V1
SYMATTR Value 800
SYMATTR SpiceLine Rser=0.001
SYMBOL voltage 240 -32 R0
WINDOW 3 -47 174 VLeft 2
WINDOW 123 0 0 Left 0
WINDOW 39 0 0 Left 0
SYMATTR InstName V2
SYMATTR Value PULSE(0 10 0 1n 1n 10u 20u)
SYMBOL pmos 352 -96 R0
WINDOW 0 56 39 Left 2
WINDOW 3 -47 -51 VRight 2
SYMATTR InstName M1
SYMATTR Value SPA11N60C3_L0
SYMATTR Prefix X
SYMBOL schottky 512 -16 R180
WINDOW 0 -56 60 Left 2
WINDOW 3 48 -68 VRight 2
SYMATTR InstName D1
SYMATTR Value MBR20100CT
SYMATTR Description Zener Diode
SYMATTR Type zener
SYMBOL cap 592 -80 R0
SYMATTR InstName C1
SYMATTR Value 10n
SYMBOL voltage 784 464 R0
WINDOW 0 -1 -12 Left 2
WINDOW 3 -47 174 VLeft 2
WINDOW 123 0 0 Left 0
WINDOW 39 0 0 Left 0
SYMATTR InstName V3
SYMATTR Value PULSE(0 10 0 1n 1n 10u 20u)
SYMBOL pmos 896 400 R0
WINDOW 0 56 39 Left 2
WINDOW 3 -47 -51 VRight 2
SYMATTR InstName M2
SYMATTR Value SPA11N60C3_L0
SYMATTR Prefix X
SYMBOL schottky 1056 480 R180
WINDOW 0 -56 60 Left 2
WINDOW 3 48 -68 VRight 2
SYMATTR InstName D2
SYMATTR Value MBR20100CT
SYMATTR Description Zener Diode
SYMATTR Type zener
SYMBOL cap 1136 416 R0
SYMATTR InstName C2
SYMATTR Value 10n
SYMBOL voltage 240 464 R0
WINDOW 0 -1 -12 Left 2
WINDOW 3 -47 174 VLeft 2
WINDOW 123 0 0 Left 0
WINDOW 39 0 0 Left 0
SYMATTR InstName V4
SYMATTR Value PULSE(0 10 10u 1n 1n 10u 20u)
SYMBOL pmos 352 400 R0
WINDOW 0 56 39 Left 2
WINDOW 3 -47 -51 VRight 2
SYMATTR InstName M3
SYMATTR Value SPA11N60C3_L0
SYMATTR Prefix X
SYMBOL schottky 512 480 R180
WINDOW 0 -56 60 Left 2
WINDOW 3 48 -68 VRight 2
SYMATTR InstName D3
SYMATTR Value MBR20100CT
SYMATTR Description Zener Diode
SYMATTR Type zener
SYMBOL cap 592 416 R0
SYMATTR InstName C3
SYMATTR Value 10n
SYMBOL voltage 784 -32 R0
WINDOW 0 -1 -12 Left 2
WINDOW 3 -47 174 VLeft 2
WINDOW 123 0 0 Left 0
WINDOW 39 0 0 Left 0
SYMATTR InstName V5
SYMATTR Value PULSE(0 10 10u 1n 1n 10u 20u)
SYMBOL pmos 896 -96 R0
WINDOW 0 56 39 Left 2
WINDOW 3 -47 -51 VRight 2
SYMATTR InstName M4
SYMATTR Value SPA11N60C3_L0
SYMATTR Prefix X
SYMBOL schottky 1056 -16 R180
WINDOW 0 -56 60 Left 2
WINDOW 3 48 -68 VRight 2
SYMATTR InstName D4
SYMATTR Value MBR20100CT
SYMATTR Description Zener Diode
SYMATTR Type zener
SYMBOL cap 1136 -80 R0
SYMATTR InstName C4
SYMATTR Value 10n
SYMBOL ind 1216 192 R270
WINDOW 0 32 56 VTop 2
WINDOW 3 5 56 VBottom 2
SYMATTR InstName L1
SYMATTR Value 80µ
SYMBOL ind2 1360 176 R0
SYMATTR InstName L2
SYMATTR Value 20m
SYMATTR Type ind
SYMBOL voltage 2672 -32 M0
WINDOW 3 -47 174 VLeft 2
WINDOW 123 0 0 Left 0
WINDOW 39 0 0 Left 0
SYMATTR InstName V6
SYMATTR Value PULSE(0 10 12u 1n 1n 10u 20u)
SYMBOL pmos 2560 -96 M0
WINDOW 0 56 39 Left 2
WINDOW 3 -47 -51 VRight 2
SYMATTR InstName M5
SYMATTR Value SPA11N60C3_L0
SYMATTR Prefix X
SYMBOL schottky 2400 -16 M180
WINDOW 0 -56 60 Left 2
WINDOW 3 48 -68 VRight 2
SYMATTR InstName D5
SYMATTR Value MBR20100CT
SYMATTR Description Zener Diode
SYMATTR Type zener
SYMBOL cap 2320 -80 M0
SYMATTR InstName C5
SYMATTR Value 10n
SYMBOL voltage 2128 464 M0
WINDOW 0 -1 -12 Left 2
WINDOW 3 -47 174 VLeft 2
WINDOW 123 0 0 Left 0
WINDOW 39 0 0 Left 0
SYMATTR InstName V7
SYMATTR Value PULSE(0 10 12u 1n 1n 10u 20u)
SYMBOL pmos 2016 400 M0
WINDOW 0 56 39 Left 2
WINDOW 3 -47 -51 VRight 2
SYMATTR InstName M6
SYMATTR Value SPA11N60C3_L0
SYMATTR Prefix X
SYMBOL schottky 1856 480 M180
WINDOW 0 -56 60 Left 2
WINDOW 3 48 -68 VRight 2
SYMATTR InstName D6
SYMATTR Value MBR20100CT
SYMATTR Description Zener Diode
SYMATTR Type zener
SYMBOL cap 1776 416 M0
SYMATTR InstName C6
SYMATTR Value 10n
SYMBOL voltage 2672 464 M0
WINDOW 0 -1 -12 Left 2
WINDOW 3 -47 174 VLeft 2
WINDOW 123 0 0 Left 0
WINDOW 39 0 0 Left 0
SYMATTR InstName V8
SYMATTR Value PULSE(0 10 2u 1n 1n 10u 20u)
SYMBOL pmos 2560 400 M0
WINDOW 0 56 39 Left 2
WINDOW 3 -47 -51 VRight 2
SYMATTR InstName M7
SYMATTR Value SPA11N60C3_L0
SYMATTR Prefix X
SYMBOL schottky 2400 480 M180
WINDOW 0 -56 60 Left 2
WINDOW 3 48 -68 VRight 2
SYMATTR InstName D7
SYMATTR Value MBR20100CT
SYMATTR Description Zener Diode
SYMATTR Type zener
SYMBOL cap 2320 416 M0
SYMATTR InstName C7
SYMATTR Value 10n
SYMBOL voltage 2128 -32 M0
WINDOW 0 -1 -12 Left 2
WINDOW 3 -47 174 VLeft 2
WINDOW 123 0 0 Left 0
WINDOW 39 0 0 Left 0
SYMATTR InstName V9
SYMATTR Value PULSE(0 10 2u 1n 1n 10u 20u)
SYMBOL pmos 2016 -96 M0
WINDOW 0 56 39 Left 2
WINDOW 3 -47 -51 VRight 2
SYMATTR InstName M8
SYMATTR Value SPA11N60C3_L0
SYMATTR Prefix X
SYMBOL schottky 1856 -16 M180
WINDOW 0 -56 60 Left 2
WINDOW 3 48 -68 VRight 2
SYMATTR InstName D8
SYMATTR Value MBR20100CT
SYMATTR Description Zener Diode
SYMATTR Type zener
SYMBOL cap 1776 -80 M0
SYMATTR InstName C8
SYMATTR Value 10n
SYMBOL ind2 1552 176 M0
WINDOW 3 -86 39 Left 2
SYMATTR InstName L3
SYMATTR Value 7.8125m
SYMATTR Type ind
SYMBOL res 2960 176 R0
SYMATTR InstName R1
SYMATTR Value 16.6
SYMBOL cap 2816 208 R0
SYMATTR InstName C9
SYMATTR Value 60µ
TEXT 1392 128 Left 2 !K L2 L3 1
TEXT 2216 680 Left 2 !.tran 0 100m 0 uic
TEXT 2216 720 Left 2 !.inc Infineon_SimulationModel_CoolMOS_C3_MOSFET_600V_Spice.lib
